S. Gaïl, M. Thomson, S. M. Sarathy, S. A. Syed, P. Dagaut, Pascal Diévart, A. J. Marchese, F. L. Dryer,
A wide-ranging kinetic modeling study of methyl butanoate combustion, Proc. Combust. Inst., Vol. 31(2006)

! FISHER E.M., PITZ W.J., CURRAN H.J., WESTBROOK, C.K., 
! "DETAILED CHEMICAL KINETIC MECHANISMS FOR COMBUSTION OF OXYGENATED FUELS", 
! PROCEEDINGS OF THE COMBUSTION INSTITUTE, VOLUME 28, P. 1579-1586, 2000;!
! LAWRENCE LIVERMORE NATIONAL LABORATORY, LIVERMORE, CA, UCRL-JC-137097. 
! UCRL-WEB-204236, REVIEW AND RELEASE DATE: MAY 19, 2004.
!
! METHYL BUTANOATE MECHANISM VERSION 18 WITH C3 HYDROCARBON MECH
! 10/2000
! REVISION SINCE SYMPOSIUM PAPER: THE FOLLOWING REACTION WAS CHANGED BY PITZ
! BECAUSE THE ACTIVATION ENERGY USED IN THE SYMPOSIUM PAPER WAS TOO LOW
!NEW VERSION
! CH2CHCHCO+HO2=CJHCHCHCO+H2O2  8.500E+13  0.000  3.043E4
!OLD VERSION
! CH2CHCHCO+HO2=CJHCHCHCO+H2O2  7.500E+09  0.000  12570  
! ELIZABETH M. FISHER

ELEMENTS
H C O N AR
END

SPECIES
BAOJ           BAOJ2*O         BAOJ2D          C2H5COCO        C5H7O2
CH3COCHO       CH3COCO         CH3OCO          CHOCHO          CJHCHCHCO   
MB             MB2D            MB2J            MB2O            MB2OH3J  
MB2OO          MB2OOH          MB2OOH3*O       MB2OOH3J        MB2OOH3OO   
MB2OOH4J       MB2OOH4OO       MB2OOHM*O       MB2OOHMJ        MB2OOHMOO   
MB3J           MB3O            MB3OH4J         MB3OH4OO        MB3OO   
MB3OOH2*O      MB3OOH2J        MB3OOH2OO       MB3OOH4*O       MB3OOH4J   
MB4*O          MB4J            MB4J*O          MB4O            MB4OO   
MB4OOH2*O      MB4OOH2D        MB4OOH2J        MB4OOH2OO       MB4OOH3*O   
MB4OOH3OO      MBCY2OM         MBCY3O2         MBCY4O2         MBCY4O3   
MBMJ           MBMJ*O          MBMO            MBMOO           MBMOOH   
MBMOOH2D       MBMOOH2J        MBMOOH2OO       ME2*O           ME2*OM*O   
ME2J           ME2J*O          ME2J*OM*O       MP2D            MP2D3J   
MP2OH3OO       MP3*O           MP3*O2*O        MP3J            MP3J*O   
MP3J2*O        SC3H5OCH2       CH2CHCHCO       CHOOCO           
COCHO          MB2OH3OO        MB2OOH4*O       MB3D            MB3OOH
MB3OOH4OO      MB4OOH          MB4OOH3J        MBM*O           MBMOOH2*O
ME2*OMJ*O      MP2OH3J         MP3J*O2*O
H              H2              O               O2              OH              
H2O            N2              CO              HCO             CO2             
CH3            CH4             HO2             H2O2            CH2O            
CH3O           C2H6            C2H4            C2H5            CH2             
CH             C2H             C2H2            C2H3            CH3OH           
CH2OH          CH2CO           HCCO            C2H5OH          PC2H4OH         
SC2H4OH        CH3CO           CH2CHO          CH3CHO          C3H4-A          
C3H4-P         C3H6            NC3H7           IC3H7           
C3H8           CH3COCH3        CH3COCH2        C2H5CHO         
C2H5CO 
C2H5O           
CH3O2          C2H5O2          CH3O2H          C2H5O2H         C2H3O1,2        
CH3CO2         C2H4O1,2        C2H4O2H         O2C2H4OH        
CH3CO3         CH3CO3H         C2H3CO          C2H3CHO         C3H5O           
C3H6OOH1-2     C3H6OOH1-3      C3H6OOH2-1      C3H6OOH1-2O2    C3H6OOH1-3O2    
C3H6OOH2-1O2   NC3H7O          IC3H7O          NC3H7O2H        IC3H7O2H        
NC3H7O2        IC3H7O2         C3H6O1-3 
CH3COCH2O2     CH3COCH2O2H     CH3COCH2O       MEALL           MHD      
C3H5-A         C3H5-S          
C3H5-T         C3H3            C3H2            C3H6O1-2        HO2CHO          
O2CHO          OCHO            CH2(S)          C3KET12         
C3KET13        C3KET21 
C3H6OH          HOC3H6O2        O2C2H4O2H       
CH2O2HCHO      IC3H5CHO        TC3H6OCHO       TC3H6CHO        
IC3H7CHO       IC3H6CO         IC3H5CO         
IC3H7CO        TC3H6O2CHO      TC3H6O2HCO      IC3H5O2HCHO     TC3H6OHCHO      
TC3H6OH        IC3H5OH 
C3H5OH          CH2CCH2OH       NC3H7CHO        NC3H7CO         
CH2CH2COCH3    C2H5COCH2       C2H5COCH3       CH2CHOOHCOCH3   CH3CHOOHCOCH3   
CH3CHOOCOCH3   CH3CHCOCH3      C2H3COCH3       CH3CHCO         CH2CH2CHO       
C3H6CHO-3      C3H6CHO-2       C2H5CHCO        IC3H5COCH3      IC3H5COCH2      
AC3H4COCH3     SC3H5COCH2      CH3CHOCHO       CH3CHCHO        SC3H5CHO        
SC3H5CO        IC3H6CHO        C3H6CHO-1       C2H5COC2H5      C2H5COC2H4P     
C2H5COC2H4S    C2H5COC2H3      PC2H4COC2H3     SC2H4COC2H3     IC3H6CHCHO      
IC3H6CHCO      AC3H5CHCHO      IC3H6CHCOCH3    AC3H5CHCOCH3    IC3H6CHCOCH2    
NC3H7COCH3     NC3H7COCH2      C3H6COCH3-1     C3H6COCH3-2     C3H6COCH3-3
IC3H7COCH3     IC3H7COCH2      IC3H6COCH3      TC3H6COCH3      NC3H7COC2H5     
C3H6COC2H5-1   C3H6COC2H5-2    C3H6COC2H5-3    NC3H7COC2H4P    NC3H7COC2H4S    
IC3H7COC2H5    IC3H6COC2H5     TC3H6COC2H5     IC3H7COC2H4P    IC3H7COC2H4S    
IC3H7COC2H3    IC3H6COC2H3     TC3H6COC2H3     IC3H5COC2H5     AC3H4COC2H5     
IC3H5COC2H4P   IC3H5COC2H4S    AC3H5CHO        BUTYNE
AC3H5CO        C2H3CHCHO       HOCH2O          IC4H5           NC4H5          
HOCHO          AR              C3H4OH          PC4H9           SC4H9
C4H8           C2C4H8          T2C4H8          C4H73           C4H6 
C4H612         HOC4H6          OC4H6           C4H5O           C4H6O2H
C4H4           C4H2            IC4H3           H2C4O           C4H           
NC4H3          BUTYN2          C6H9            IC4H7           C3H4O2H
C3H4O          C3H3O           C2H3O         
END

REACTIONS                          CAL/MOLE
MB4J+H=MB  1.000E+14  0.000  0.0   !1  RNC7: H +FRAGME
MB3J+H=MB  1.000E+14  0.000  0.0   !1  RNC7: H +FRAGME   
MB2J+H=MB  1.000E+14  0.000  0.0   !1  RNC7*: H +FRAGM  
MBMJ+H=MB  1.000E+14  0.000  0.0   !1  RNC7**: H +FRAG

MP3J+CH3=MB  1.000E+13  0.000  0.0   !1  RNC7: CH3 +FRAG
BAOJ+CH3=MB  3.000E+13  0.000  0.0   !1  APDME: CH3O+CH3
ME2J+C2H5=MB  8.000E+12  0.000  0.0   !1  RNC7*:LARGER AL
CH3OCO+NC3H7=MB  1.810E+13  0.000  0.0   !1  ANIST: EXT LIT 
NC3H7CO+CH3O=MB  3.000E+13  0.000  0.0   !1  APDME: CH3O+CH3
MB+C2H3=C2H4+MB4J  5.010E+11  0.000  18000.0   !2  RNC7, PRIMARY; 
MB+C2H5=C2H6+MB4J  5.010E+10  0.000  13400.0   !2  RNC7, PRIMARY; 
MB+CH3=CH4+MB4J  4.520E-01  3.650  7154.0   !2  ANC7, PRIMARY F
MB+CH3O=CH3OH+MB4J  1.581E+11  0.000  7000.0   !2  RNC7, PRIMARY; 
MB+CH3O2=CH3O2H+MB4J  8.400E+12  0.000  20440.0   !2  CORRECTED TO AG
MB+H=H2+MB4J  9.400E+04  2.750  6280.0   !2  ANC7, PRIMARY F
MB+HO2=H2O2+MB4J  8.400E+12  0.000  20440.0   !2  ANC7, PRIMARY F
MB+O=OH+MB4J  9.650E+04  2.680  3716.0   !2  ANC7, PRIMARY F
MB+O2=HO2+MB4J  3.000E+13  0.000  52800.0   !2  ANC7, PRIMARY F
MB+OH=H2O+MB4J  5.250E+09  0.970  1590.0   !2  RNC7, PRIMARY; 
MB+MB4OO=MB4OOH+MB4J  2.800E+12  0.000  20440.0   !2  NEW REACTION PE
MB+MB3OO=MB3OOH+MB4J  2.800E+12  0.000  20440.0   !2  NEW REACTION PE
MB+MB2OO=MB2OOH+MB4J  2.800E+12  0.000  20440.0   !2  NEW REACTION PE
MB+MBMOO=MBMOOH+MB4J  2.800E+12  0.000  20440.0   !2  NEW REACTION PE
MB+C2H3=C2H4+MB3J  4.000E+11  0.000  16800.0   !2  RNC7, SECONDARY
MB+C2H5=C2H6+MB3J  5.000E+10  0.000  10400.0   !2  RNC7, SECONDARY
MB+CH3=CH4+MB3J  2.705E+04  2.260  7287.0   !2  ANC7, SECONDARY
MB+CH3O=CH3OH+MB3J  1.095E+11  0.000  5000.0   !2  ANC7, SECONDARY
MB+CH3O2=CH3O2H+MB3J  5.600E+12  0.000  17690.0   !2  CORRECTED TO AG
MB+H=H2+MB3J  1.300E+06  2.400  4471.0   !2  ANC7, SECONDARY 
MB+HO2=H2O2+MB3J  5.600E+12  0.000  17690.0   !2  ANC7, SECONDARY
MB+O=OH+MB3J  4.770E+04  2.710  2106.0   !2  ANC7, SECONDARY
MB+O2=HO2+MB3J  2.000E+13  0.000  51050.0   !2  ANC7, SECONDARY
MB+OH=H2O+MB3J  4.680E+07  1.610  -35.0   !2  RNC7, SECONDARY
MB+MB4OO=MB4OOH+MB3J  1.867E+12  0.000  17690.0   !2  NEW REACTION PE
MB+MB3OO=MB3OOH+MB3J  1.867E+12  0.000  17690.0   !2  NEW REACTION PE
MB+MB2OO=MB2OOH+MB3J  1.867E+12  0.000  17690.0   !2  NEW REACTION PE
MB+MBMOO=MBMOOH+MB3J  1.867E+12  0.000  17690.0   !2  NEW REACTION PE
MB+C2H3=C2H4+MB2J  4.000E+11  0.000  14300.0   !2  RNC7*, TERTIARY
MB+C2H5=C2H6+MB2J  2.000E+11  0.000  7900.0   !2  ANC7, RNC7*, TE
MB+CH3=CH4+MB2J  2.000E+11  0.000  7900.0   !2  RNC7, ANC7 TERT
MB+CH3O=CH3OH+MB2J  3.800E+10  0.000  2800.0   !2  RNC7, ANC7 TERT
MB+CH3O2=CH3O2H+MB2J  4.000E+12  0.000  14000.0   !2  SAME AS HO2

MB+H=H2+MB2J  1.000E+14  0.000  7300.0   !2  RNC7, ANC7, TER /2.52..................GAIL
 
MB+HO2=H2O2+MB2J  4.320E+12  0.000  14400.0   !2  RNC7 TERTIARY
MB+O=OH+MB2J  2.200E+13  0.000  3280.0   !2  RNC7, ANC7 TERT
MB+O2=HO2+MB2J  4.000E+13  0.000  41300.0   !2  RNC7 TERTIARY
MB+OH=H2O+MB2J  1.146E+11  0.510  63.0   !2  RNC7, ANC7 TERT
MB+MB4OO=MB4OOH+MB2J  2.160E+12  0.000  14400.0   !2  NEW REACTION PE
MB+MB3OO=MB3OOH+MB2J  2.160E+12  0.000  14400.0   !2  NEW REACTION PE
MB+MB2OO=MB2OOH+MB2J  2.160E+12  0.000  14400.0   !2  NEW REACTION PE
MB+MBMOO=MBMOOH+MB2J  2.160E+12  0.000  14400.0   !2  NEW REACTION PE
MB+C2H3=C2H4+MBMJ  5.010E+11  0.000  18000.0   !2  RNC7**, PRIMARY
MB+C2H5=C2H6+MBMJ  5.010E+10  0.000  13400.0   !2  RNC7**, PRIMARY
MB+CH3=CH4+MBMJ  4.520E-01  3.650  7154.0   !2  ANC7, PRIMARY F
MB+CH3O=CH3OH+MBMJ  1.581E+11  0.000  7000.0   !2  RNC7**, PRIMARY
MB+CH3O2=CH3O2H+MBMJ  8.400E+12  0.000  20440.0   !2  CORRECTED TO AG
MB+H=H2+MBMJ  9.400E+04  2.750  6280.0   !2  ANC7, PRIMARY F
MB+HO2=H2O2+MBMJ  8.400E+12  0.000  20440.0   !2  ANC7, PRIMARY F
MB+O=OH+MBMJ  9.650E+04  2.680  3716.0   !2  ANC7, PRIMARY F
MB+O2=HO2+MBMJ  3.000E+13  0.000  52800.0   !2  ANC7, PRIMARY F
MB+OH=H2O+MBMJ  5.250E+09  0.970  1590.0   !2  RNC7**, PRIMARY
MB+MB4OO=MB4OOH+MBMJ  2.800E+12  0.000  20440.0   !2  NEW REACTION PE
MB+MB3OO=MB3OOH+MBMJ  2.800E+12  0.000  20440.0   !2  NEW REACTION PE
MB+MB2OO=MB2OOH+MBMJ  2.800E+12  0.000  20440.0   !2  NEW REACTION PE
MB+MBMOO=MBMOOH+MBMJ  2.800E+12  0.000  20440.0   !2  NEW REACTION PE
CO2+NC3H7=BAOJ  1.000E+11  0.000  39360.0   !3  SINCE REACTION 
C2H5CHCO+CH3O=MB2J  5.000E+11  0.000  -1000.0   !3  ANC7 :OH+C3H6=C
MB2D+H=MB2J  1.000E+13  0.000  2900.0   !3  RNC7: H TO INT.
MP2D+CH3=MB2J  1.000E+11  0.000  7600.0   !3  HC DESCR. OF NC
C3H6+CH3OCO=MB3J  1.055E+11  0.000  7350.0   !3  ANC7:CH3CO+C2H4
MB2D+H=MB3J  1.000E+13  0.000  2900.0   !3  RNC7*: H TO INT
MB3D+H=MB3J  1.000E+13  0.000  1200.0   !3  RNC7: H TO TERM
C2H4+ME2J=MB4J  2.000E+11  0.000  7600.0   !3  HC DESCR. OF NC
MB3D+H=MB4J  1.000E+13  0.000  2900.0   !3  RNC7: H TO INT.
CH2CO+CH3O=ME2J  5.000E+11  0.000  -1000.0   !3  ANC7 :OH+C3H6=C
CO+CH3O=CH3OCO  1.500E+11  0.000  3000.0   !3  NDME
CO2+CH3=CH3OCO  1.500E+11  0.000  36730.0   !3  NDME
C2H4+CH3OCO=MP3J  2.110E+11  0.000  7350.0   !3  ANC7:CH3CO+C2H4
MP2D+H=MP3J  1.000E+13  0.000  2900.0   !3  RNC7*: H TO INT
C2H5CHCO+H=NC3H7CO  1.000E+13  0.000  2900.0   !3  RNC7*: H TO INT
CH2CO+C2H5=NC3H7CO  1.000E+11  0.000  7600.0   !3  HC DESCR. OF NC
NC3H7CO+CH2O=MBMJ  2.002E+12  0.000  24000.0   !3  ANIST: ABS VAL 
MB4J=MB2J  1.786E+09  0.798  31736.3   !5  RADICALC, RS FO
MB4J=MB3J  1.639E+10  0.945  39319.5   !5  RADICALC, RS FO
MB4J=MBMJ  4.547E+09  -0.544  18822.5   !5  RADICALC, RS FO
MB3J=MBMJ  9.256E+10  -0.654  13897.0   !5  RADICALC, RS FO
MB3J=MB2J  1.414E+10  0.862  39467.5   !5  RADICALC, RS FO
MB2J=MBMJ  8.495E+11  -0.507  21614.5   !5  RADICALC, RS FO
MB2D+CH3=C5H7O2+CH4  1.000E+12  0.000  7300.0   !6  ANC7
MB3D+CH3=C5H7O2+CH4  1.000E+12  0.000  7300.0   !6  ANC7
MP2D+CH3=>C2H3CO+CH2O+CH4  4.520E-01  3.650  7154.0   !6  NO ALLYLIC H ON
MB2D+H=C5H7O2+H2  3.700E+13  0.000  3900.0   !6  ANC7
MB3D+H=C5H7O2+H2  3.700E+13  0.000  3900.0   !6  ANC7
MP2D+H=>C2H3CO+CH2O+H2  9.400E+04  2.750  6280.0   !6  NO ALLYLIC H ON
C5H7O2+OH=MB2D+O  7.000E+11  0.000  29900.0   !6  ANC7; DELIBERAT
C5H7O2+OH=MB3D+O  7.000E+11  0.000  29900.0   !6  ANC7; DELIBERAT
MP2D+O=>C2H3CO+CH2O+OH  9.650E+04  2.680  3716.0   !6  NO ALLYLIC H ON
MB2D+OH=C5H7O2+H2O  3.000E+13  0.000  1230.0   !6  ANC7
MB3D+OH=C5H7O2+H2O  3.000E+13  0.000  1230.0   !6  ANC7
MP2D+OH=>C2H3CO+CH2O+H2O  5.250E+09  0.970  1590.0   !6  NO ALLYLIC H ON
MB2D+HO2=C5H7O2+H2O2  1.500E+11  0.000  14190.0   !6  ANC7: C3H6+HO2=
MB3D+HO2=C5H7O2+H2O2  1.500E+11  0.000  14190.0   !6  ANC7: C3H6+HO2=
MP2D+HO2=>C2H3CO+CH2O+H2O2  8.400E+12  0.000  20440.0   !6  NO ALLYLIC H ON
MB3D+OH=MB3OH4J  2.760E+12  0.000  -1042.0   !7  PITZ PROPENE OH
MB2D+OH=MB2OH3J  2.760E+12  0.000  -1042.0   !7  PITZ PROPENE OH
MP2D+OH=MP2OH3J  2.760E+12  0.000  -1042.0   !7  PITZ PROPENE OH
MB3OH4J+O2=MB3OH4OO  1.000E+12  0.000  -1100.0   !7  PITZ PROPENE OH
MB2OH3J+O2=MB2OH3OO  1.000E+12  0.000  -1100.0   !7  PITZ PROPENE OH
MP2OH3J+O2=MP2OH3OO  1.000E+12  0.000  -1100.0   !7  PITZ PROPENE OH
MB3OH4OO=>MP3*O+OH+CH2O  1.000E+12  0.000  28680.0   !7  IRREVERSIBLE; P
MB2OH3OO=>ME2*O+OH+CH3CHO  1.000E+12  0.000  28680.0   !7  IRREVERSIBLE; P
MP2OH3OO=>ME2*O+OH+CH2O  1.000E+12  0.000  28680.0   !7  IRREVERSIBLE; P
MB3D+O=MP3J+HCO  1.580E+07  1.760  -1216.0   !7  MARINOV CALC FR
MB2D+O=ME2J+CH3CO  1.580E+07  1.760  -1216.0   !7  MARINOV CALC FR
MP2D+O=ME2J+HCO  1.580E+07  1.760  -1216.0   !7  MARINOV CALC FR
MB3D+O=ME2J+CH2CHO  2.505E+07  1.760  76.0   !7  MARINOV CALC FR
MB3D+O=>C2H3CHO+H+CH3OCO  2.505E+07  1.760  76.0   !7  MARINOV CALC FR
MB2D+O=CH3OCO+CH3CHCHO  5.010E+07  1.760  76.0   !7  MARINOV CALC FR
MP2D+O=CH3OCO+CH2CHO  5.010E+07  1.760  76.0   !7  MARINOV CALC FR
C5H7O2=CH2CHCHCO+CH3O  2.500E+13  0.000  45000.0   !8  RNC7, ANC7
CH2CHCHCO+H=CJHCHCHCO+H2  4.210E-03  4.620  2583.0   !8  ANC7: H+C2H4=H2
CH2CHCHCO+OH=CJHCHCHCO+H2O  1.010E+13  0.000  5955.0   !8  ANC7: OH+C2H4=H
CH2CHCHCO+CH3=CJHCHCHCO+CH4  3.310E+00  3.700  9500.0   !8  ANC7: CH3+C2H4=
CH2CHCHCO+O=CJHCHCHCO+OH  1.200E+11  0.700  8959.0   !8  ANC7: C3H6+O = 
CH2CHCHCO+HO2=CJHCHCHCO+H2O2  8.500E+13  0.000  3.043E4   !8  REVISED BY PITZ
C2H2+HCCO=CJHCHCHCO  1.610E+40  -8.580  20331.0   !8  ANIST, DELIBERA
C2H3+HCCO=CH2CHCHCO  8.000E+12  0.000  0.0   !8  RNC7*:LARGER AL
CH2CHCHCO+H=CO+C3H5-A  1.100E+13  0.000  3400.0   !8  ANC7: H+CH2CO=C
CH2CHCHCO+H=C2H4+HCCO  1.100E+13  0.000  3400.0   !8  ANC7: H+CH2CO=C
CH2CHCHCO+OH=HCCO+CH3CHO  3.730E+12  0.000  -1013.0   !8  ANC7: OH+CH2CO=
CH2CHCHCO+OH=CH3CHCHO+CO  3.730E+12  0.000  -1013.0   !8  ANC7: OH+CH2CO=
CH3+MP2D3J=MB2D  1.000E+13  0.000  0.0   !9  ALLARA AND SHAW
C2H3+ME2J=MB3D  1.000E+13  0.000  0.0   !9  ALLARA AND SHAW
C2H3+CH3OCO=MP2D  1.000E+13  0.000  0.0   !9  ALLARA AND SHAW
HCO+CH3OCO=ME2*O  1.000E+13  0.000  0.0   !9  ALLARA AND SHAW
HCO+MP3J=MB4*O  1.000E+13  0.000  0.0   !9  ALLARA AND SHAW
NC3H7+CHOOCO=MBM*O  1.000E+13  0.000  0.0   !9  ALLARA AND SHAW
HCO+CHOOCO=ME2*OM*O  1.000E+13  0.000  0.0   !9  ALLARA AND SHAW
CH2CHO+CH3OCO=MP3*O  1.000E+13  0.000  0.0   !9  ALLARA AND SHAW
HCO+ME2J*O=MP3*O2*O  1.000E+13  0.000  0.0   !9  ALLARA AND SHAW
HCO+HCO=CHOCHO  1.000E+13  0.000  0.0   !9  ALLARA AND SHAW
CH3CO+HCO=CH3COCHO  1.000E+13  0.000  0.0   !9  ALLARA AND SHAW
CH3+C2H3CO=C2H5CHCO  1.000E+13  0.000  0.0   !9  ALLARA AND SHAW
MB4J+O2=MB4OO  4.500E+12  0.000  0.0   !10  NC7; PRIMARY
MBMJ+O2=MBMOO  4.500E+12  0.000  0.0   !10  NC7; PRIMARY
MB3J+O2=MB3OO  7.540E+12  0.000  0.0   !10  NC7; SECONDARY
MB2J+O2=MB2OO  1.410E+13  0.000  0.0   !10  NC7; TERTIARY
MB4OO+MB4J=MB4O+MB4O  7.000E+12  0.000  -1000.0   !11  ANC7
MB4OO+MB3J=MB4O+MB3O  7.000E+12  0.000  -1000.0   !11  ANC7
MB4OO+MB2J=MB4O+MB2O  7.000E+12  0.000  -1000.0   !11  ANC7
MB4OO+MBMJ=MB4O+MBMO  7.000E+12  0.000  -1000.0   !11  ANC7
MB3OO+MB4J=MB3O+MB4O  7.000E+12  0.000  -1000.0   !11  ANC7
MB3OO+MB3J=MB3O+MB3O  7.000E+12  0.000  -1000.0   !11  ANC7
MB3OO+MB2J=MB3O+MB2O  7.000E+12  0.000  -1000.0   !11  ANC7
MB3OO+MBMJ=MB3O+MBMO  7.000E+12  0.000  -1000.0   !11  ANC7
MB2OO+MB4J=MB2O+MB4O  7.000E+12  0.000  -1000.0   !11  ANC7
MB2OO+MB3J=MB2O+MB3O  7.000E+12  0.000  -1000.0   !11  ANC7
MB2OO+MB2J=MB2O+MB2O  7.000E+12  0.000  -1000.0   !11  ANC7
MB2OO+MBMJ=MB2O+MBMO  7.000E+12  0.000  -1000.0   !11  ANC7
MBMOO+MB4J=MBMO+MB4O  7.000E+12  0.000  -1000.0   !11  ANC7
MBMOO+MB3J=MBMO+MB3O  7.000E+12  0.000  -1000.0   !11  ANC7
MBMOO+MB2J=MBMO+MB2O  7.000E+12  0.000  -1000.0   !11  ANC7
MBMOO+MBMJ=MBMO+MBMO  7.000E+12  0.000  -1000.0   !11  ANC7
MB4OO+CH3=CH3O+MB4O  7.000E+12  0.000  -1000.0   !11  ANC7
MB4OO+C2H5=C2H5O+MB4O  7.000E+12  0.000  -1000.0   !11  ANC7
MB4OO+IC3H7=IC3H7O+MB4O  7.000E+12  0.000  -1000.0   !11  ANC7
MB4OO+NC3H7=NC3H7O+MB4O  7.000E+12  0.000  -1000.0   !11  ANC7
MB3OO+CH3=CH3O+MB3O  7.000E+12  0.000  -1000.0   !11  ANC7
MB3OO+C2H5=C2H5O+MB3O  7.000E+12  0.000  -1000.0   !11  ANC7
MB3OO+IC3H7=IC3H7O+MB3O  7.000E+12  0.000  -1000.0   !11  ANC7
MB3OO+NC3H7=NC3H7O+MB3O  7.000E+12  0.000  -1000.0   !11  ANC7
MB2OO+CH3=CH3O+MB2O  7.000E+12  0.000  -1000.0   !11  ANC7
MB2OO+C2H5=C2H5O+MB2O  7.000E+12  0.000  -1000.0   !11  ANC7
MB2OO+IC3H7=IC3H7O+MB2O  7.000E+12  0.000  -1000.0   !11  ANC7
MB2OO+NC3H7=NC3H7O+MB2O  7.000E+12  0.000  -1000.0   !11  ANC7
MBMOO+CH3=CH3O+MBMO  7.000E+12  0.000  -1000.0   !11  ANC7
MBMOO+C2H5=C2H5O+MBMO  7.000E+12  0.000  -1000.0   !11  ANC7
MBMOO+IC3H7=IC3H7O+MBMO  7.000E+12  0.000  -1000.0   !11  ANC7
MBMOO+NC3H7=NC3H7O+MBMO  7.000E+12  0.000  -1000.0   !11  ANC7
C2H5O2+MB2J=C2H5O+MB2O  7.000E+12  0.000  -1000.0   !11  ANC7
C2H5O2+MB3J=C2H5O+MB3O  7.000E+12  0.000  -1000.0   !11  ANC7
C2H5O2+MB4J=C2H5O+MB4O  7.000E+12  0.000  -1000.0   !11  ANC7
C2H5O2+MBMJ=C2H5O+MBMO  7.000E+12  0.000  -1000.0   !11  ANC7
CH3O2+MB2J=CH3O+MB2O  7.000E+12  0.000  -1000.0   !11  ANC7
CH3O2+MB3J=CH3O+MB3O  7.000E+12  0.000  -1000.0   !11  ANC7
CH3O2+MB4J=CH3O+MB4O  7.000E+12  0.000  -1000.0   !11  ANC7
CH3O2+MBMJ=CH3O+MBMO  7.000E+12  0.000  -1000.0   !11  ANC7
HO2+MB2J=OH+MB2O  7.000E+12  0.000  -1000.0   !11  ANC7
HO2+MB3J=OH+MB3O  7.000E+12  0.000  -1000.0   !11  ANC7
HO2+MB4J=OH+MB4O  7.000E+12  0.000  -1000.0   !11  ANC7
HO2+MBMJ=OH+MBMO  7.000E+12  0.000  -1000.0   !11  ANC7
IC3H7O2+MB2J=IC3H7O+MB2O  7.000E+12  0.000  -1000.0   !11  ANC7
IC3H7O2+MB3J=IC3H7O+MB3O  7.000E+12  0.000  -1000.0   !11  ANC7
IC3H7O2+MB4J=IC3H7O+MB4O  7.000E+12  0.000  -1000.0   !11  ANC7
IC3H7O2+MBMJ=IC3H7O+MBMO  7.000E+12  0.000  -1000.0   !11  ANC7
NC3H7O2+MB2J=NC3H7O+MB2O  7.000E+12  0.000  -1000.0   !11  ANC7
NC3H7O2+MB3J=NC3H7O+MB3O  7.000E+12  0.000  -1000.0   !11  ANC7
NC3H7O2+MB4J=NC3H7O+MB4O  7.000E+12  0.000  -1000.0   !11  ANC7
NC3H7O2+MBMJ=NC3H7O+MBMO  7.000E+12  0.000  -1000.0   !11  ANC7
MB2OO=MB2OOH3J  1.088E+12  0.000  29206.5   !12  PAPER RS VALUES
MB2OO=MB2OOH4J  6.097E+10  0.000  25076.0   !12  PAPER RS VALUES
MB2OO=MB2OOHMJ  3.165E+09  0.000  21803.5   !12  PAPER RS VALUES
MB3OO=MB3OOH2J  2.837E+12  0.000  27789.0   !12  PAPER RS VALUES
MB3OO=MB3OOH4J  8.669E+11  0.000  30876.0   !12  PAPER RS VALUES
MB4OO=MB4OOH2J  1.995E+11  0.000  21989.0   !12  PAPER RS VALUES
MB4OO=MB4OOH3J  1.088E+12  0.000  29206.5   !12  PAPER RS VALUES
MBMOO=MBMOOH2J  1.455E+10  0.000  19189.0   !12  PAPER RS VALUES
MB4OO+HO2=MB4OOH+O2  1.750E+10  0.000  -3275.0   !13  ANC7
MB3OO+HO2=MB3OOH+O2  1.750E+10  0.000  -3275.0   !13  ANC7
MB2OO+HO2=MB2OOH+O2  1.750E+10  0.000  -3275.0   !13  ANC7
MBMOO+HO2=MBMOOH+O2  1.750E+10  0.000  -3275.0   !13  ANC7
MB4OO+H2O2=>MB4OOH+HO2  2.400E+12  0.000  10000.0   !14  ANC7;RNC7; ONE 
MB4OOH+HO2=>MB4OO+H2O2  2.400E+12  0.000  10000.0   !14  ANC7;RNC7; ONE 
MB3OO+H2O2=>MB3OOH+HO2  2.400E+12  0.000  10000.0   !14  ANC7;RNC7; ONE 
MB3OOH+HO2=>MB3OO+H2O2  2.400E+12  0.000  10000.0   !14  ANC7;RNC7; ONE 
MB2OO+H2O2=>MB2OOH+HO2  2.400E+12  0.000  10000.0   !14  ANC7;RNC7; ONE 
MB2OOH+HO2=>MB2OO+H2O2  2.400E+12  0.000  10000.0   !14  ANC7;RNC7; ONE 
MBMOO+H2O2=>MBMOOH+HO2  2.400E+12  0.000  10000.0   !14  ANC7;RNC7; ONE 
MBMOOH+HO2=>MBMOO+H2O2  2.400E+12  0.000  10000.0   !14  ANC7;RNC7; ONE 
MB4OO+CH3O2=>MB4O+CH3O+O2  1.400E+16  -1.610  1860.0   !15  ANC7
MB3OO+CH3O2=>MB3O+CH3O+O2  1.400E+16  -1.610  1860.0   !15  ANC7
MB2OO+CH3O2=>MB2O+CH3O+O2  1.400E+16  -1.610  1860.0   !15  ANC7
MBMOO+CH3O2=>MBMO+CH3O+O2  1.400E+16  -1.610  1860.0   !15  ANC7
C2H5O2+MB4OO=>C2H5O+MB4O+O2  1.400E+16  -1.610  1860.0   !16  ANC7; IRREVERSI
C2H5O2+MB3OO=>C2H5O+MB3O+O2  1.400E+16  -1.610  1860.0   !16  ANC7; IRREVERSI
C2H5O2+MB2OO=>C2H5O+MB2O+O2  1.400E+16  -1.610  1860.0   !16  ANC7; IRREVERSI
C2H5O2+MBMOO=>C2H5O+MBMO+O2  1.400E+16  -1.610  1860.0   !16  ANC7; IRREVERSI
IC3H7O2+MB4OO=>IC3H7O+MB4O+O2  1.400E+16  -1.610  1860.0   !16  ANC7; IRREVER
IC3H7O2+MB3OO=>IC3H7O+MB3O+O2  1.400E+16  -1.610  1860.0   !16  ANC7; IRREVER
IC3H7O2+MB2OO=>IC3H7O+MB2O+O2  1.400E+16  -1.610  1860.0   !16  ANC7; IRREVER
IC3H7O2+MBMOO=>IC3H7O+MBMO+O2  1.400E+16  -1.610  1860.0   !16  ANC7; IRREVER
MB2OO+MB2OO=>O2+MB2O+MB2O  1.400E+16  -1.610  1860.0   !16  ANC7; IRREVERSI
MB2OO+MB3OO=>MB2O+MB3O+O2  1.400E+16  -1.610  1860.0   !16  ANC7; IRREVERSI
MB2OO+MB4OO=>MB2O+MB4O+O2  1.400E+16  -1.610  1860.0   !16  ANC7; IRREVERSI
MB2OO+MBMOO=>MB2O+MBMO+O2  1.400E+16  -1.610  1860.0   !16  ANC7; IRREVERSI
MB3OO+MB3OO=>O2+MB3O+MB3O  1.400E+16  -1.610  1860.0   !16  ANC7; IRREVERSI
MB3OO+MB4OO=>MB3O+MB4O+O2  1.400E+16  -1.610  1860.0   !16  ANC7; IRREVERSI
MB3OO+MBMOO=>MB3O+MBMO+O2  1.400E+16  -1.610  1860.0   !16  ANC7; IRREVERSI
MB4OO+MB4OO=>O2+MB4O+MB4O  1.400E+16  -1.610  1860.0   !16  ANC7; IRREVERSI
MB4OO+MBMOO=>MB4O+MBMO+O2  1.400E+16  -1.610  1860.0   !16  ANC7; IRREVERSI
MBMOO+MBMOO=>O2+MBMO+MBMO  1.400E+16  -1.610  1860.0   !16  ANC7; IRREVERSI
NC3H7O2+MB4OO=>NC3H7O+MB4O+O2  1.400E+16  -1.610  1860.0   !16  ANC7; IRREVER
NC3H7O2+MB3OO=>NC3H7O+MB3O+O2  1.400E+16  -1.610  1860.0   !16  ANC7; IRREVER
NC3H7O2+MB2OO=>NC3H7O+MB2O+O2  1.400E+16  -1.610  1860.0   !16  ANC7; IRREVER
NC3H7O2+MBMOO=>NC3H7O+MBMO+O2  1.400E+16  -1.610  1860.0   !16  ANC7; IRREVER
MB4OOH=MB4O+OH  1.500E+16  0.000  42500.0   !17  ANC7, PRIMARY S
MB3OOH=MB3O+OH  9.450E+15  0.000  41600.0   !17  ANC7, SECONDARY
MB2OOH=MB2O+OH  5.950E+15  0.000  42540.0   !17  ANC, TERTIARY S
MBMOOH=MBMO+OH  1.500E+16  0.000  42500.0   !17  ANC7, PRIMARY S
CH2O+MP3J=MB4O  1.500E+11  0.000  11900.0   !18  ANC7, ALK TO TE
CH3CHO+ME2J=MB3O  1.500E+11  0.000  11900.0   !18  ANC7, ALK TO TE
ME2*O+C2H5=MB2O  1.500E+11  0.000  11900.0   !18  ANC7, ALK TO IN
MBM*O+H=MBMO  6.628E+09  1.110  4226.0   !18  ANIST: CALCULAT
MB4*O+H=MB4O  6.628E+09  1.110  4226.0   !18  ANIST: CALCULAT
MP3*O+CH3=MB3O  1.500E+11  0.000  11900.0   !18  ANC7, ALK TO IN
C2H5CHO+CH3OCO=MB2O  1.500E+11  0.000  11900.0   !18  ANC7, "ALK" TO 
CH2O+BAOJ=MBMO  1.500E+11  0.000  11900.0   !18  ANC7, "ALK" TO 
MB2OOHMJ=>MBCY2OM+OH  9.375E+09  0.000  7000.0   !19  HCN
MB2OOH4J=>MBCY4O2+OH  7.500E+10  0.000  15250.0   !19  HCN
MB2OOH3J=>MBCY3O2+OH  6.000E+11  0.000  22000.0   !19  HCN
MB3OOH2J=>MBCY3O2+OH  6.000E+11  0.000  22000.0   !19  HCN
MB3OOH4J=>MBCY4O3+OH  6.000E+11  0.000  22000.0   !19  HCN
MB4OOH2J=>MBCY4O2+OH  7.500E+10  0.000  15250.0   !19  HCN
MB4OOH3J=>MBCY4O3+OH  6.000E+11  0.000  22000.0   !19  HCN
MBMOOH2J=>MBCY2OM+OH  9.375E+09  0.000  7000.0   !19  HCN
MB3D+HO2=MB4OOH3J  1.500E+11  0.000  7800.0   !20  ANC7 
MB2D+HO2=MB3OOH2J  1.500E+11  0.000  7800.0   !20  ANC7 
MB3D+HO2=MB3OOH4J  1.500E+11  0.000  7800.0   !20  ANC7 
MB2D+HO2=MB2OOH3J  1.500E+11  0.000  7800.0   !20  ANC7 
MB2OOH4J=>ME2*O+C2H4+OH  5.916E+19  -1.870  30290.0   !21  ANC7**
MB4OOH2J=>MP2D+CH2O+OH  1.025E+20  -1.580  33380.0   !21  ANC7**
MB2OOH3J+O2=MB2OOH3OO  7.540E+12  0.000  0.0   !22  NC7, SECONDARY
MB2OOH4J+O2=MB2OOH4OO  4.520E+12  0.000  0.0   !22  NC7, PRIMARY
MB2OOHMJ+O2=MB2OOHMOO  4.520E+12  0.000  0.0   !22  NC7, PRIMARY
MB3OOH2J+O2=MB3OOH2OO  1.410E+13  0.000  0.0   !22  NC7; TERTIARY
MB3OOH4J+O2=MB3OOH4OO  4.520E+12  0.000  0.0   !22  NC7, PRIMARY
MB4OOH2J+O2=MB4OOH2OO  1.410E+13  0.000  0.0   !22  NC7; TERTIARY
MB4OOH3J+O2=MB4OOH3OO  7.540E+12  0.000  0.0   !22  NC7, SECONDARY
MBMOOH2J+O2=MBMOOH2OO  1.410E+13  0.000  0.0   !22  NC7; TERTIARY
MB2OOH3OO=MB3OOH2*O+OH  1.419E+12  0.000  26151.0   !23  AS IN RO2 ISOME
MB2OOH4OO=MB4OOH2*O+OH  9.976E+10  0.000  20351.0   !23  AS IN RO2 ISOME
MB2OOHMOO=MBMOOH2*O+OH  7.275E+09  0.000  20190.7   !23  AS IN RO2 ISOME
MB3OOH2OO=MB2OOH3*O+OH  5.440E+11  0.000  27915.0   !23  AS IN RO2 ISOME
MB3OOH4OO=MB4OOH2D+HO2  1.995E+11  0.000  20351.0   !23  AS IN RO2 ISOME
MB3OOH4OO=MB4OOH3*O+OH  5.440E+11  0.000  26151.0   !23  AS IN RO2 ISOME
MB4OOH2OO=MB4OOH2D+HO2  1.088E+12  0.000  29206.5   !23  AS IN RO2 ISOME
MB4OOH2OO=MB2OOH4*O+OH  4.065E+10  0.000  21863.0   !23  AS IN RO2 ISOME
MB4OOH3OO=MB4OOH2D+HO2  2.837E+12  0.000  26151.0   !23  AS IN RO2 ISOME
MB4OOH3OO=MB3OOH4*O+OH  5.779E+11  0.000  27663.0   !23  AS IN RO2 ISOME
MBMOOH2OO=MBMOOH2D+HO2  1.088E+12  0.000  31846.2   !23  AS IN RO2 ISOME
MBMOOH2OO=MB2OOHM*O+OH  2.110E+09  0.000  21703.0   !23  AS IN RO2 ISOME
MB2OOH3OO=MB3OOH2OO  7.275E+09  0.000  12700.0   !23  AS IN RO2 ISOME
MB3OOH4OO=MB4OOH3OO  7.275E+09  0.000  12700.0   !23  AS IN RO2 ISOME
MB4OOH2*O=>CH2O+MP3J2*O+OH  1.500E+16  0.000  42000.0   !24A  ANC7 PRIM
MB4OOH2D=>CH2O+MP2D3J+OH  1.500E+16  0.000  42000.0   !24A  ANC7 PRIM
MB4OOH3*O=>CH2O+MP3J*O+OH  1.500E+16  0.000  42000.0   !24A  ANC7 PRIM
MBMOOH2*O=>CH2O+BAOJ2*O+OH  1.500E+16  0.000  42000.0   !24A  ANC7 PRIM*
MBMOOH2D=>CH2O+BAOJ2D+OH  1.500E+16  0.000  42000.0   !24A  ANC7 PRIM*
MB3OOH2*O=>MP3*O2*O+CH3+OH  1.050E+16  0.000  41600.0   !24A  ANC7 SEC
MB3OOH4*O=>ME2J+CHOCHO+OH  1.050E+16  0.000  41600.0   !24A  ANC7 SEC
MB2OOH3*O=>CH3CO+ME2*O+OH  5.250E+15  0.000  41600.0   !24A  ANC7 SEC*
MB2OOH3*O=>CH3COCHO+CH3OCO+OH  5.250E+15  0.000  41600.0   !24A  ANC7 SEC*
MB2OOH4*O=>ME2*O+CH2CHO+OH  1.050E+16  0.000  41600.0   !24A  ANC7 SEC*
MB2OOHM*O=>ME2*OM*O+C2H5+OH  1.050E+16  0.000  41600.0   !24A  ANC7 SEC*
MBCY2OM+H=>CO2+SC3H5OCH2+H2  4.800E+08  1.500  2005.0   !25  DBR, SEE SHEET 
MBCY2OM+OH=>CO2+SC3H5OCH2+H2O  2.400E+06  2.000  -1192.2   !25  DBR, SEE SHEE
MBCY2OM+HO2=>CO2+SC3H5OCH2+H2O2  4.000E+12  0.000  13261.0   !25  MY EVANS-PO
MBCY2OM+H=>CH2O+C2H5COCO+H2  2.400E+08  1.500  2005.0   !25  DBR, SEE SHEET 
MBCY2OM+OH=>CH2O+C2H5COCO+H2O  1.200E+06  2.000  -1192.2   !25  DBR, SEE SHEE
MBCY2OM+HO2=>CH2O+C2H5COCO+H2O2  2.000E+12  0.000  13261.0   !25  MY EVANS-PO
MBCY4O2+H=>MP2D+HCO+H2  4.800E+08  1.500  2785.0   !25  DBR, SEE SHEET 
MBCY4O2+OH=>MP2D+HCO+H2O  2.400E+06  2.000  -1192.2   !25  DBR, SEE SHEET 
MBCY4O2+HO2=>MP2D+HCO+H2O2  4.000E+12  0.000  14398.0   !25  MY EVANS-POLYAN
MBCY4O2+H=>C2H4+ME2J*O+H2  2.400E+08  1.500  2005.0   !25  DBR, SEE SHEET 
MBCY4O2+OH=>C2H4+ME2J*O+H2O  1.200E+06  2.000  -1192.2   !25  DBR, SEE SHEET 
MBCY4O2+HO2=>C2H4+ME2J*O+H2O2  2.000E+12  0.000  13261.0   !25  MY EVANS-POLY
MBCY3O2+H=>CH3CHCO+CH3OCO+H2  4.800E+08  1.500  2005.0   !25  DBR, SEE SHEET 
MBCY3O2+OH=>CH3CHCO+CH3OCO+H2O  2.400E+06  2.000  -1192.2   !25  DBR, SEE SHE
MBCY3O2+HO2=>CH3CHCO+CH3OCO+H2O2  4.000E+12  0.000  13261.0   !25  MY EVANS-P
MBCY4O3+H=>CH2O+MP2D3J+H2  4.800E+08  1.500  2875.0   !25  DBR, SEE SHEET 
MBCY4O3+OH=>CH2O+MP2D3J+H2O  2.400E+06  2.000  -1192.2   !25  DBR, SEE SHEET 
MBCY4O3+HO2=>CH2O+MP2D3J+H2O2  4.000E+12  0.000  14398.0   !25  MY EVANS-POLY
MBCY4O3+H=>CH2CO+ME2J+H2  4.800E+08  1.500  2005.0   !25  DBR, SEE SHEET 
MBCY4O3+OH=>CH2CO+ME2J+H2O  2.400E+06  2.000  -1192.2   !25  DBR, SEE SHEET 
MBCY4O3+HO2=>CH2CO+ME2J+H2O2  4.000E+12  0.000  13261.0   !25  MY EVANS-POLYA
ME2*O+H=ME2J*O+H2  4.000E+13  0.000  4200.0   !26  ANC7; ALDEHYDIC
MB4*O+H=MB4J*O+H2  4.000E+13  0.000  4200.0   !26  ANC7; ALDEHYDIC
MBM*O+H=MBMJ*O+H2  4.000E+13  0.000  4200.0   !26  ANC7; ALDEHYDIC
ME2*OM*O+H=ME2J*OM*O+H2  4.000E+13  0.000  4200.0   !26  ANC7; ALDEHYDIC
ME2*OM*O+H=ME2*OMJ*O+H2  4.000E+13  0.000  4200.0   !26  ANC7; ALDEHYDIC
MP3*O+H=MP3J*O+H2  4.000E+13  0.000  4200.0   !26  ANC7; ALDEHYDIC
MP3*O2*O+H=MP3J*O2*O+H2  4.000E+13  0.000  4200.0   !26  ANC7; ALDEHYDIC
CHOCHO+H=COCHO+H2  8.000E+13  0.000  4200.0   !26  ANC7; ALDEHYDIC
CH3COCHO+H=CH3COCO+H2  4.000E+13  0.000  4200.0   !26  ANC7; ALDEHYDIC
ME2*O+OH=ME2J*O+H2O  2.690E+10  0.760  -340.0   !26  ANC7: ALDEHYDIC
MB4*O+OH=MB4J*O+H2O  2.690E+10  0.760  -340.0   !26  ANC7: ALDEHYDIC
MBM*O+OH=MBMJ*O+H2O  2.690E+10  0.760  -340.0   !26  ANC7: ALDEHYDIC
ME2*OM*O+OH=ME2J*OM*O+H2O  2.690E+10  0.760  -340.0   !26  ANC7: ALDEHYDIC
ME2*OM*O+OH=ME2*OMJ*O+H2O  2.690E+10  0.760  -340.0   !26  ANC7: ALDEHYDIC
MP3*O+OH=MP3J*O+H2O  2.690E+10  0.760  -340.0   !26  ANC7: ALDEHYDIC
MP3*O2*O+OH=MP3J*O2*O+H2O  2.690E+10  0.760  -340.0   !26  ANC7: ALDEHYDIC
CHOCHO+OH=COCHO+H2O  5.380E+10  0.760  -340.0   !26  ANC7: ALDEHYDIC
CH3COCHO+OH=CH3COCO+H2O  2.690E+10  0.760  -340.0   !26  ANC7: ALDEHYDIC
ME2*O+O=ME2J*O+OH  5.000E+12  0.000  1790.0   !26  ANC7; ALDEHYDIC
MB4*O+O=MB4J*O+OH  5.000E+12  0.000  1790.0   !26  ANC7; ALDEHYDIC
MBM*O+O=MBMJ*O+OH  5.000E+12  0.000  1790.0   !26  ANC7; ALDEHYDIC
ME2*OM*O+O=ME2J*OM*O+OH  5.000E+12  0.000  1790.0   !26  ANC7; ALDEHYDIC
ME2*OM*O+O=ME2*OMJ*O+OH  5.000E+12  0.000  1790.0   !26  ANC7; ALDEHYDIC
MP3*O+O=MP3J*O+OH  5.000E+12  0.000  1790.0   !26  ANC7; ALDEHYDIC
MP3*O2*O+O=MP3J*O2*O+OH  5.000E+12  0.000  1790.0   !26  ANC7; ALDEHYDIC
CHOCHO+O=COCHO+OH  1.000E+13  0.000  1790.0   !26  ANC7; ALDEHYDIC
CH3COCHO+O=CH3COCO+OH  5.000E+12  0.000  1790.0   !26  ANC7; ALDEHYDIC
ME2*O+CH3=ME2J*O+CH4  1.700E+12  0.000  8440.0   !26  ANC7: ALDEHYDIC
MB4*O+CH3=MB4J*O+CH4  1.700E+12  0.000  8440.0   !26  ANC7: ALDEHYDIC
MBM*O+CH3=MBMJ*O+CH4  1.700E+12  0.000  8440.0   !26  ANC7: ALDEHYDIC
ME2*OM*O+CH3=ME2J*OM*O+CH4  1.700E+12  0.000  8440.0   !26  ANC7: ALDEHYDIC
ME2*OM*O+CH3=ME2*OMJ*O+CH4  1.700E+12  0.000  8440.0   !26  ANC7: ALDEHYDIC
MP3*O+CH3=MP3J*O+CH4  1.700E+12  0.000  8440.0   !26  ANC7: ALDEHYDIC
MP3*O2*O+CH3=MP3J*O2*O+CH4  1.700E+12  0.000  8440.0   !26  ANC7: ALDEHYDIC
CHOCHO+CH3=COCHO+CH4  3.400E+12  0.000  8440.0   !26  ANC7: ALDEHYDIC
CH3COCHO+CH3=CH3COCO+CH4  1.700E+12  0.000  8440.0   !26  ANC7: ALDEHYDIC
ME2*O+HO2=ME2J*O+H2O2  2.800E+12  0.000  13600.0   !26  ANC7: ALDEHYDIC
MB4*O+HO2=MB4J*O+H2O2  2.800E+12  0.000  13600.0   !26  ANC7: ALDEHYDIC
MBM*O+HO2=MBMJ*O+H2O2  2.800E+12  0.000  13600.0   !26  ANC7: ALDEHYDIC
ME2*OM*O+HO2=ME2J*OM*O+H2O2  2.800E+12  0.000  13600.0   !26  ANC7: ALDEHYDIC